Version 4
SHEET 1 940 680
WIRE 368 -32 304 -32
WIRE 752 -32 448 -32
WIRE 752 80 752 -32
WIRE 752 80 560 80
WIRE 512 128 384 128
WIRE 576 128 560 128
WIRE 752 128 752 80
WIRE 384 144 384 128
WIRE 576 160 576 128
WIRE 576 160 560 160
WIRE 752 160 752 128
WIRE 128 192 64 192
WIRE 240 192 208 192
WIRE 304 192 304 -32
WIRE 304 192 240 192
WIRE 336 192 304 192
WIRE 64 256 64 192
WIRE 64 256 -32 256
WIRE 128 256 64 256
WIRE 240 256 240 192
WIRE 240 256 208 256
WIRE 512 256 512 192
WIRE 560 256 560 160
WIRE -32 288 -32 256
WIRE 64 288 64 256
WIRE -32 384 -32 368
WIRE 64 384 64 368
WIRE 64 384 -32 384
WIRE 64 400 64 384
FLAG 560 256 0
FLAG 752 128 out
FLAG 64 400 0
FLAG 752 240 0
FLAG 512 256 0
FLAG 464 144 0
SYMBOL SLiCAP\\SLR 64 288 R0
SYMATTR InstName R3
SYMATTR Value {Rs}
SYMBOL SLiCAP\\SLR 128 256 R270
WINDOW 0 8 40 VTop 2
WINDOW 3 -8 40 VBottom 2
SYMATTR InstName R4
SYMATTR Value {Ree}
SYMBOL SLiCAP\\SLC 128 192 R270
WINDOW 0 16 40 VTop 2
WINDOW 3 -16 40 VBottom 2
SYMATTR InstName C3
SYMATTR Value {Ce}
SYMBOL SLiCAP\\SLI -32 288 R0
SYMATTR InstName I1
SYMBOL SLiCAP\\SLC 752 160 R0
SYMATTR InstName C1
SYMATTR Value {Cload}
SYMBOL SLiCAP\\SLXMD 336 192 R0
SYMATTR InstName U1
SYMATTR SpiceModel CMOS18ND
SYMATTR Value W={2*W} L={L} ID={2*ID}
SYMBOL SLiCAP\\SLXM 512 128 R0
SYMATTR InstName U2
SYMATTR SpiceModel CMOS18N
SYMATTR Value W={Wout} L={L} ID={IDout}
SYMBOL SLiCAP\\SLR 368 -32 R270
WINDOW 0 8 40 VTop 2
WINDOW 3 -8 40 VBottom 2
SYMATTR InstName R1
SYMATTR Value {gain}
TEXT 184 120 Left 2 !.lib SLiCAP.lib
