Version 4
SHEET 1 960 680
WIRE 432 96 304 96
WIRE 640 96 512 96
WIRE 576 128 560 128
WIRE 640 128 640 96
WIRE 640 128 576 128
WIRE 752 128 640 128
WIRE 784 128 752 128
WIRE 512 160 448 160
WIRE 576 160 576 128
WIRE 576 160 560 160
WIRE 752 160 752 128
WIRE 448 176 448 160
WIRE 144 192 80 192
WIRE 256 192 224 192
WIRE 304 192 304 96
WIRE 304 192 256 192
WIRE 304 224 304 192
WIRE 320 224 304 224
WIRE 512 224 496 224
WIRE 80 256 80 192
WIRE 80 256 -16 256
WIRE 144 256 80 256
WIRE 256 256 256 192
WIRE 256 256 224 256
WIRE 752 272 752 240
WIRE -16 288 -16 256
WIRE 80 288 80 256
WIRE 512 304 512 224
WIRE 512 304 320 304
WIRE -16 384 -16 368
WIRE 80 384 80 368
WIRE 80 384 -16 384
WIRE 80 400 80 384
FLAG 752 128 out
FLAG 80 400 0
FLAG 752 272 0
FLAG 320 304 0
FLAG 368 176 0
FLAG 560 208 0
SYMBOL SLiCAP\\SLR 80 288 R0
SYMATTR InstName R3
SYMATTR Value {Rs}
SYMBOL SLiCAP\\SLR 144 256 R270
WINDOW 0 8 40 VTop 2
WINDOW 3 -8 40 VBottom 2
SYMATTR InstName R4
SYMATTR Value {Ree}
SYMBOL SLiCAP\\SLC 144 192 R270
WINDOW 0 16 40 VTop 2
WINDOW 3 -16 40 VBottom 2
SYMATTR InstName C3
SYMATTR Value {Ce}
SYMBOL SLiCAP\\SLI -16 288 R0
SYMATTR InstName I1
SYMBOL SLiCAP\\SLC 752 160 R0
SYMATTR InstName C1
SYMATTR Value {Cload}
SYMBOL SLiCAP\\SLXM 512 160 M180
SYMATTR InstName U1
SYMATTR SpiceModel CMOS18P
SYMATTR Value W={Wout} L={Lout} ID={IDout}
SYMBOL SLiCAP\\SLR 432 96 R270
WINDOW 0 8 40 VTop 2
WINDOW 3 -8 40 VBottom 2
SYMATTR InstName R1
SYMATTR Value {gain}
SYMBOL SLXMD 320 224 R0
SYMATTR InstName U2
SYMATTR SpiceModel CMOS18ND
SYMATTR Value W={Was} L={Lin} ID={IDas}
TEXT 200 120 Left 2 !.lib SLiCAP.lib
TEXT 272 344 Left 2 ;loopgain reference: Gm_M1_XU2 (cascoded version, no Cdg)
TEXT 312 232 Left 2 ;+
TEXT 432 168 Left 2 ;+
TEXT 352 160 Left 2 ;-
TEXT 520 -56 Left 2 ;-
TEXT 592 136 Left 2 ;-
TEXT 312 288 Left 2 ;-
TEXT 504 240 Left 2 ;-
