Version 4
SHEET 1 940 680
WIRE 336 48 304 48
WIRE 448 48 416 48
WIRE 448 128 448 48
WIRE 448 128 384 128
WIRE 560 128 448 128
WIRE 592 128 560 128
WIRE 384 144 384 128
WIRE 560 160 560 128
WIRE 144 192 80 192
WIRE 256 192 224 192
WIRE 304 192 304 48
WIRE 304 192 256 192
WIRE 336 192 304 192
WIRE 400 192 384 192
WIRE 400 224 400 192
WIRE 400 224 384 224
WIRE 80 256 80 192
WIRE 80 256 -16 256
WIRE 144 256 80 256
WIRE 256 256 256 192
WIRE 256 256 224 256
WIRE 384 272 384 224
WIRE 560 272 560 240
WIRE -16 288 -16 256
WIRE 80 288 80 256
WIRE -16 384 -16 368
WIRE 80 384 80 368
WIRE 80 384 -16 384
WIRE 80 400 80 384
FLAG 384 272 0
FLAG 560 128 out
FLAG 80 400 0
FLAG 560 272 0
SYMBOL SLiCAP\\SLR 80 288 R0
SYMATTR InstName R3
SYMATTR Value {Rs}
SYMBOL SLiCAP\\SLR 144 256 R270
WINDOW 0 8 40 VTop 2
WINDOW 3 -8 40 VBottom 2
SYMATTR InstName R4
SYMATTR Value {Ree}
SYMBOL SLiCAP\\SLC 144 192 R270
WINDOW 0 16 40 VTop 2
WINDOW 3 -16 40 VBottom 2
SYMATTR InstName C3
SYMATTR Value {Ce}
SYMBOL SLiCAP\\SLI -16 288 R0
SYMATTR InstName I1
SYMBOL SLiCAP\\SLC 560 160 R0
SYMATTR InstName C1
SYMATTR Value {Cload}
SYMBOL SLiCAP\\SLXM 336 192 R0
SYMATTR InstName U1
SYMATTR SpiceModel CMOS18N
SYMBOL SLiCAP\\SLR 336 48 R270
WINDOW 0 8 40 VTop 2
WINDOW 3 -8 40 VBottom 2
SYMATTR InstName R1
SYMATTR Value {gain}
TEXT 200 120 Left 2 !.lib SLiCAP.lib
TEXT 272 344 Left 2 ;loopgain reference: Gm_M1_XU1 (cascoded version, no Cdg)
TEXT 328 184 Left 2 ;+
TEXT 408 256 Left 2 ;+
TEXT 360 256 Left 2 ;-
TEXT 400 112 Left 2 ;-
