Version 4
SHEET 1 940 680
WIRE 512 48 304 48
WIRE 624 48 592 48
WIRE 624 128 624 48
WIRE 624 128 560 128
WIRE 736 128 624 128
WIRE 768 128 736 128
WIRE 560 144 560 128
WIRE 560 144 480 144
WIRE 736 160 736 128
WIRE 144 192 80 192
WIRE 256 192 224 192
WIRE 304 192 304 48
WIRE 304 192 256 192
WIRE 352 192 304 192
WIRE 576 192 528 192
WIRE 576 224 576 192
WIRE 576 224 560 224
WIRE 80 256 80 192
WIRE 80 256 -16 256
WIRE 144 256 80 256
WIRE 256 256 256 192
WIRE 256 256 224 256
WIRE 560 272 560 224
WIRE 736 272 736 240
WIRE -16 288 -16 256
WIRE 80 288 80 256
WIRE -16 384 -16 368
WIRE 80 384 80 368
WIRE 80 384 -16 384
WIRE 80 400 80 384
FLAG 560 272 0
FLAG 736 128 out
FLAG 80 400 0
FLAG 736 272 0
FLAG 400 144 0
SYMBOL SLiCAP\\SLR 80 288 R0
SYMATTR InstName R3
SYMATTR Value {Rs}
SYMBOL SLiCAP\\SLR 144 256 R270
WINDOW 0 8 40 VTop 2
WINDOW 3 -8 40 VBottom 2
SYMATTR InstName R4
SYMATTR Value {Ree}
SYMBOL SLiCAP\\SLC 144 192 R270
WINDOW 0 16 40 VTop 2
WINDOW 3 -16 40 VBottom 2
SYMATTR InstName C3
SYMATTR Value {Ce}
SYMBOL SLiCAP\\SLI -16 288 R0
SYMATTR InstName I1
SYMBOL SLiCAP\\SLC 736 160 R0
SYMATTR InstName C1
SYMATTR Value {Cload}
SYMBOL SLiCAP\\SLR 512 48 R270
WINDOW 0 8 40 VTop 2
WINDOW 3 -8 40 VBottom 2
SYMATTR InstName R1
SYMATTR Value {gain}
SYMBOL SLXMD 352 192 R0
SYMATTR InstName U1
SYMATTR SpiceModel CMOS18ND
SYMATTR Value W={Was} L={Lin} ID={IDas}
TEXT 200 120 Left 2 !.lib SLiCAP.lib
TEXT 272 344 Left 2 ;loopgain reference: Gm_M1_XU1 (cascoded version, no Cdg)
TEXT 584 256 Left 2 ;+
TEXT 536 256 Left 2 ;-
TEXT 576 112 Left 2 ;-
