Version 4
SHEET 1 1048 680
WIRE 400 -64 304 -64
WIRE 624 -64 480 -64
WIRE 384 16 368 16
WIRE 448 16 448 0
WIRE 448 16 384 16
WIRE 512 16 448 16
WIRE 528 16 512 16
WIRE 384 32 384 16
WIRE 512 32 512 16
WIRE 368 64 368 16
WIRE 384 64 368 64
WIRE 448 64 432 64
WIRE 464 64 448 64
WIRE 528 64 528 16
WIRE 528 64 512 64
WIRE 400 112 384 112
WIRE 448 112 448 64
WIRE 448 112 400 112
WIRE 512 128 512 112
WIRE 512 128 480 128
WIRE 624 128 624 -64
WIRE 624 128 560 128
WIRE 736 128 624 128
WIRE 768 128 736 128
WIRE 400 144 400 112
WIRE 480 144 480 128
WIRE 560 144 560 128
WIRE 560 144 480 144
WIRE 736 160 736 128
WIRE 144 192 80 192
WIRE 256 192 224 192
WIRE 304 192 304 -64
WIRE 304 192 256 192
WIRE 352 192 304 192
WIRE 576 192 528 192
WIRE 576 224 576 192
WIRE 576 224 560 224
WIRE 80 256 80 192
WIRE 80 256 -16 256
WIRE 144 256 80 256
WIRE 256 256 256 192
WIRE 256 256 224 256
WIRE 560 272 560 224
WIRE 560 272 352 272
WIRE 736 272 736 240
WIRE -16 288 -16 256
WIRE 80 288 80 256
WIRE -16 384 -16 368
WIRE 80 384 80 368
WIRE 80 384 -16 384
WIRE 80 400 80 384
FLAG 736 128 out
FLAG 80 400 0
FLAG 736 272 0
FLAG 448 0 0
FLAG 352 272 0
SYMBOL SLiCAP\\SLR 80 288 R0
SYMATTR InstName R3
SYMATTR Value {Rs}
SYMBOL SLiCAP\\SLR 144 256 R270
WINDOW 0 8 40 VTop 2
WINDOW 3 -8 40 VBottom 2
SYMATTR InstName R4
SYMATTR Value {Ree}
SYMBOL SLiCAP\\SLC 144 192 R270
WINDOW 0 16 40 VTop 2
WINDOW 3 -16 40 VBottom 2
SYMATTR InstName C3
SYMATTR Value {Ce}
SYMBOL SLiCAP\\SLI -16 288 R0
SYMATTR InstName I1
SYMBOL SLiCAP\\SLC 736 160 R0
SYMATTR InstName C1
SYMATTR Value {Cload}
SYMBOL SLiCAP\\SLR 400 -64 R270
WINDOW 0 14 41 VTop 2
WINDOW 3 -8 40 VBottom 2
SYMATTR InstName R1
SYMATTR Value {gain}
SYMBOL SLXMD 352 192 R0
SYMATTR InstName U1
SYMATTR SpiceModel CMOS18ND
SYMATTR Value W={Was} L={Lin} ID={IDas}
SYMBOL SLiCAP\\SLXM 432 64 R180
SYMATTR InstName U2
SYMATTR SpiceModel CMOS18P
SYMATTR Value W={Wcm} L={Lcm} ID={IDasPMOS}
SYMBOL SLiCAP\\SLXM 464 64 M180
SYMATTR InstName U3
SYMATTR SpiceModel CMOS18P
SYMATTR Value W={Wcm} L={Lcm} ID={IDasPMOS}
TEXT 200 120 Left 2 !.lib SLiCAP.lib
TEXT 272 344 Left 2 ;loopgain reference: Gm_M1_XU1 (cascoded version, no Cdg)
TEXT 536 256 Left 2 ;-
TEXT 464 144 Left 2 ;-
TEXT 392 144 Left 2 ;+
TEXT 344 200 Left 2 ;+
TEXT 344 264 Left 2 ;-
