Version 4
SHEET 1 1212 680
WIRE 560 32 304 32
WIRE 928 32 640 32
WIRE 928 80 928 32
WIRE 928 80 720 80
WIRE 528 128 384 128
WIRE 544 128 528 128
WIRE 736 128 720 128
WIRE 928 128 928 80
WIRE 384 144 384 128
WIRE 736 160 736 128
WIRE 736 160 720 160
WIRE 928 160 928 128
WIRE 144 192 80 192
WIRE 256 192 224 192
WIRE 304 192 304 32
WIRE 304 192 256 192
WIRE 336 192 304 192
WIRE 400 192 384 192
WIRE 400 224 400 192
WIRE 400 224 384 224
WIRE 80 256 80 192
WIRE 80 256 -16 256
WIRE 144 256 80 256
WIRE 256 256 256 192
WIRE 256 256 224 256
WIRE 384 256 384 224
WIRE 528 256 528 208
WIRE 528 256 384 256
WIRE 672 256 672 208
WIRE 672 256 528 256
WIRE 720 256 720 160
WIRE 720 256 672 256
WIRE 384 272 384 256
WIRE -16 288 -16 256
WIRE 80 288 80 256
WIRE -16 384 -16 368
WIRE 80 384 80 368
WIRE 80 384 -16 384
WIRE 80 400 80 384
FLAG 384 272 0
FLAG 928 128 out
FLAG 80 400 0
FLAG 928 240 0
SYMBOL SLiCAP\\SLR 80 288 R0
SYMATTR InstName R3
SYMATTR Value {Rs}
SYMBOL SLiCAP\\SLR 144 256 R270
WINDOW 0 8 40 VTop 2
WINDOW 3 -8 40 VBottom 2
SYMATTR InstName R4
SYMATTR Value {Ree}
SYMBOL SLiCAP\\SLC 144 192 R270
WINDOW 0 16 40 VTop 2
WINDOW 3 -16 40 VBottom 2
SYMATTR InstName C3
SYMATTR Value {Ce}
SYMBOL SLiCAP\\SLI -16 288 R0
SYMATTR InstName I1
SYMBOL SLiCAP\\SLC 928 160 R0
SYMATTR InstName C1
SYMATTR Value {Cload}
SYMBOL SLiCAP\\SLXM 336 192 R0
SYMATTR InstName U1
SYMATTR SpiceModel CMOS18N
SYMBOL SLiCAP\\SLXM 672 128 R0
SYMATTR InstName U2
SYMATTR SpiceModel CMOS18N
SYMATTR Value W={Wout} L={L} ID={IDout}
SYMBOL SLiCAP\\SLF 608 112 R0
SYMATTR InstName F1
SYMATTR Value 1
SYMBOL SLiCAP\\SLR 560 32 R270
WINDOW 0 8 40 VTop 2
WINDOW 3 -8 40 VBottom 2
SYMATTR InstName R1
SYMATTR Value {gain}
TEXT 200 120 Left 2 !.lib SLiCAP.lib
