Version 4
SHEET 1 1212 680
WIRE 368 48 304 48
WIRE 1040 48 448 48
WIRE 1040 80 1040 48
WIRE 1040 80 832 80
WIRE 608 128 384 128
WIRE 656 128 608 128
WIRE 784 128 720 128
WIRE 848 128 832 128
WIRE 1040 128 1040 80
WIRE 384 144 384 128
WIRE 848 160 848 128
WIRE 848 160 832 160
WIRE 1040 160 1040 128
WIRE 608 176 592 176
WIRE 656 176 656 128
WIRE 672 176 656 176
WIRE 736 176 720 176
WIRE 144 192 80 192
WIRE 256 192 224 192
WIRE 304 192 304 48
WIRE 304 192 256 192
WIRE 336 192 304 192
WIRE 400 192 384 192
WIRE 400 224 400 192
WIRE 400 224 384 224
WIRE 592 224 592 176
WIRE 608 224 608 208
WIRE 608 224 592 224
WIRE 720 224 720 208
WIRE 736 224 736 176
WIRE 736 224 720 224
WIRE 80 256 80 192
WIRE 80 256 -32 256
WIRE 144 256 80 256
WIRE 256 256 256 192
WIRE 256 256 224 256
WIRE 384 256 384 224
WIRE 608 256 608 224
WIRE 608 256 384 256
WIRE 720 256 720 224
WIRE 720 256 608 256
WIRE 832 256 832 160
WIRE 832 256 720 256
WIRE 384 272 384 256
WIRE -32 288 -32 256
WIRE 80 288 80 256
WIRE -32 384 -32 368
WIRE 80 384 80 368
WIRE 80 384 -32 384
WIRE 80 400 80 384
FLAG 384 272 0
FLAG 1040 128 out
FLAG 80 400 0
FLAG 1040 240 0
SYMBOL SLiCAP\\SLR 80 288 R0
SYMATTR InstName R3
SYMATTR Value {Rs}
SYMBOL SLiCAP\\SLR 144 256 R270
WINDOW 0 8 40 VTop 2
WINDOW 3 -8 40 VBottom 2
SYMATTR InstName R4
SYMATTR Value {Ree}
SYMBOL SLiCAP\\SLC 144 192 R270
WINDOW 0 16 40 VTop 2
WINDOW 3 -16 40 VBottom 2
SYMATTR InstName C3
SYMATTR Value {Ce}
SYMBOL SLiCAP\\SLI -32 288 R0
SYMATTR InstName I1
SYMBOL SLiCAP\\SLC 1040 160 R0
SYMATTR InstName C1
SYMATTR Value {Cload}
SYMBOL SLiCAP\\SLXM 336 192 R0
SYMATTR InstName U1
SYMATTR SpiceModel CMOS18N
SYMBOL SLiCAP\\SLXM 784 128 R0
SYMATTR InstName U2
SYMATTR SpiceModel CMOS18N
SYMATTR Value W={Wout} L={L} ID={IDout}
SYMBOL SLiCAP\\SLXM 672 176 R0
SYMATTR InstName U3
SYMATTR SpiceModel CMOS18P
SYMATTR Value W={Wcurmir} L={L} ID={ID}
SYMBOL SLiCAP\\SLXM 656 176 M0
SYMATTR InstName U4
SYMATTR SpiceModel CMOS18P
SYMATTR Value W={Wcurmir} L={L} ID={ID}
SYMBOL SLiCAP\\SLR 368 48 R270
WINDOW 0 8 40 VTop 2
WINDOW 3 -8 40 VBottom 2
SYMATTR InstName R1
SYMATTR Value {gain}
TEXT 200 120 Left 2 !.lib SLiCAP.lib
TEXT 600 296 Left 2 ;PMOS CURRENT MIRROR to introduce a -1: \n- Use a low transconductance\n- Use a high cut-off frequency\n- Introduces a pole around ft/2
