Version 4
SHEET 1 1084 680
WIRE 560 128 544 128
WIRE 576 128 560 128
WIRE 496 160 432 160
WIRE 560 160 560 128
WIRE 560 160 544 160
WIRE 320 176 320 144
WIRE 432 176 432 160
WIRE 432 176 400 176
WIRE 592 208 544 208
WIRE 672 208 592 208
WIRE 816 208 752 208
WIRE 928 208 816 208
WIRE 272 224 256 224
WIRE 816 240 816 208
WIRE 144 288 80 288
WIRE 256 288 256 224
WIRE 256 288 224 288
WIRE 304 288 256 288
WIRE 304 336 304 288
WIRE 432 336 304 336
WIRE 592 336 592 208
WIRE 592 336 512 336
WIRE 80 352 80 288
WIRE 80 352 -16 352
WIRE 144 352 80 352
WIRE 256 352 256 288
WIRE 256 352 224 352
WIRE 816 352 816 320
WIRE -16 384 -16 352
WIRE 80 384 80 352
WIRE -16 480 -16 464
WIRE 80 480 80 464
WIRE 80 480 -16 480
WIRE 80 496 80 480
FLAG 816 208 out
FLAG 80 496 0
FLAG 816 352 0
FLAG 576 128 0
FLAG 448 224 0
FLAG 320 144 0
SYMBOL SLiCAP\\SLR 80 384 R0
SYMATTR InstName R3
SYMATTR Value {Rs}
SYMBOL SLiCAP\\SLR 144 352 R270
WINDOW 0 8 40 VTop 2
WINDOW 3 -8 40 VBottom 2
SYMATTR InstName R4
SYMATTR Value {Ree}
SYMBOL SLiCAP\\SLC 144 288 R270
WINDOW 0 16 40 VTop 2
WINDOW 3 -16 40 VBottom 2
SYMATTR InstName C3
SYMATTR Value {Ce}
SYMBOL SLiCAP\\SLI -16 384 R0
SYMATTR InstName I1
SYMBOL SLiCAP\\SLC 816 240 R0
SYMATTR InstName C1
SYMATTR Value {Cload}
SYMBOL SLiCAP\\SLR 432 336 R270
WINDOW 0 8 40 VTop 2
WINDOW 3 -8 40 VBottom 2
SYMATTR InstName R1
SYMATTR Value {gain}
SYMBOL SLXMD 272 224 R0
SYMATTR InstName U1
SYMATTR SpiceModel CMOS18ND
SYMATTR Value W={Was} L={Lin} ID={IDas}
SYMBOL SLiCAP\\SLXM 496 160 M180
SYMATTR InstName U4
SYMATTR SpiceModel CMOS18P
SYMATTR Value W={Wout} L={Lout} ID={IDoutPMOS}
SYMBOL SLiCAP\\SLR 672 208 R270
WINDOW 0 8 40 VTop 2
WINDOW 3 -8 40 VBottom 2
SYMATTR InstName R2
SYMATTR Value {Rph1}
TEXT 16 40 Left 2 !.lib SLiCAP.lib
TEXT 264 232 Left 2 ;+
TEXT 312 272 Left 2 ;-
TEXT 456 240 Left 2 ;-
