Version 4
SHEET 1 1084 680
WIRE 640 128 624 128
WIRE 656 128 640 128
WIRE 496 160 432 160
WIRE 576 160 496 160
WIRE 640 160 640 128
WIRE 640 160 624 160
WIRE 320 176 320 144
WIRE 432 176 432 160
WIRE 432 176 400 176
WIRE 736 208 624 208
WIRE 832 208 736 208
WIRE 864 208 832 208
WIRE 272 224 256 224
WIRE 832 240 832 208
WIRE 496 272 496 240
WIRE 624 272 624 208
WIRE 624 272 496 272
WIRE 144 336 80 336
WIRE 256 336 256 224
WIRE 256 336 224 336
WIRE 304 336 256 336
WIRE 832 352 832 320
WIRE 304 384 304 336
WIRE 432 384 304 384
WIRE 736 384 736 208
WIRE 736 384 512 384
WIRE 80 400 80 336
WIRE 80 400 -16 400
WIRE 144 400 80 400
WIRE 256 400 256 336
WIRE 256 400 224 400
WIRE -16 432 -16 400
WIRE 80 432 80 400
WIRE -16 528 -16 512
WIRE 80 528 80 512
WIRE 80 528 -16 528
WIRE 80 544 80 528
FLAG 832 208 out
FLAG 80 544 0
FLAG 832 352 0
FLAG 656 128 0
FLAG 448 224 0
FLAG 320 144 0
SYMBOL SLiCAP\\SLR 80 432 R0
SYMATTR InstName R3
SYMATTR Value {Rs}
SYMBOL SLiCAP\\SLR 144 400 R270
WINDOW 0 8 40 VTop 2
WINDOW 3 -8 40 VBottom 2
SYMATTR InstName R4
SYMATTR Value {Ree}
SYMBOL SLiCAP\\SLC 144 336 R270
WINDOW 0 16 40 VTop 2
WINDOW 3 -16 40 VBottom 2
SYMATTR InstName C3
SYMATTR Value {Ce}
SYMBOL SLiCAP\\SLI -16 432 R0
SYMATTR InstName I1
SYMBOL SLiCAP\\SLC 832 240 R0
SYMATTR InstName C1
SYMATTR Value {Cload}
SYMBOL SLiCAP\\SLR 432 384 R270
WINDOW 0 8 40 VTop 2
WINDOW 3 -8 40 VBottom 2
SYMATTR InstName R1
SYMATTR Value {gain}
SYMBOL SLXMD 272 224 R0
SYMATTR InstName U1
SYMATTR SpiceModel CMOS18ND
SYMATTR Value W={Was} L={Lin} ID={IDas}
SYMBOL SLiCAP\\SLXM 576 160 M180
SYMATTR InstName U4
SYMATTR SpiceModel CMOS18P
SYMATTR Value W={Wout} L={Lout} ID={IDoutPMOS}
SYMBOL SLiCAP\\SLC 496 160 R0
SYMATTR InstName C2
SYMATTR Value {Cps}
TEXT 16 144 Left 2 !.lib SLiCAP.lib
TEXT 264 232 Left 2 ;+
TEXT 520 -56 Left 2 ;-
TEXT 456 240 Left 2 ;-
