Version 4
SHEET 1 1084 680
WIRE 304 48 288 48
WIRE 368 48 368 32
WIRE 368 48 304 48
WIRE 432 48 368 48
WIRE 448 48 432 48
WIRE 304 64 304 48
WIRE 432 64 432 48
WIRE 288 96 288 48
WIRE 304 96 288 96
WIRE 368 96 352 96
WIRE 384 96 368 96
WIRE 448 96 448 48
WIRE 448 96 432 96
WIRE 640 128 624 128
WIRE 656 128 640 128
WIRE 320 144 304 144
WIRE 320 160 320 144
WIRE 368 160 368 96
WIRE 368 160 320 160
WIRE 432 160 432 144
WIRE 496 160 432 160
WIRE 576 160 496 160
WIRE 640 160 640 128
WIRE 640 160 624 160
WIRE 320 176 320 160
WIRE 432 176 432 160
WIRE 432 176 400 176
WIRE 736 208 624 208
WIRE 832 208 736 208
WIRE 864 208 832 208
WIRE 272 224 256 224
WIRE 832 240 832 208
WIRE 496 272 496 240
WIRE 528 272 496 272
WIRE 624 272 624 208
WIRE 624 272 608 272
WIRE 624 336 624 272
WIRE 832 352 832 320
WIRE 144 416 80 416
WIRE 256 416 256 224
WIRE 256 416 224 416
WIRE 304 416 256 416
WIRE 304 464 304 416
WIRE 432 464 304 464
WIRE 736 464 736 208
WIRE 736 464 512 464
WIRE 80 480 80 416
WIRE 80 480 -16 480
WIRE 144 480 80 480
WIRE 256 480 256 416
WIRE 256 480 224 480
WIRE -16 512 -16 480
WIRE 80 512 80 480
WIRE -16 608 -16 592
WIRE 80 608 80 592
WIRE 80 608 -16 608
WIRE 80 624 80 608
FLAG 832 208 out
FLAG 80 624 0
FLAG 832 352 0
FLAG 368 32 0
FLAG 656 128 0
FLAG 576 384 0
FLAG 624 416 0
FLAG 624 384 0
FLAG 448 224 0
SYMBOL SLiCAP\\SLR 80 512 R0
SYMATTR InstName R3
SYMATTR Value {Rs}
SYMBOL SLiCAP\\SLR 144 480 R270
WINDOW 0 8 40 VTop 2
WINDOW 3 -8 40 VBottom 2
SYMATTR InstName R4
SYMATTR Value {Ree}
SYMBOL SLiCAP\\SLC 144 416 R270
WINDOW 0 16 40 VTop 2
WINDOW 3 -16 40 VBottom 2
SYMATTR InstName C3
SYMATTR Value {Ce}
SYMBOL SLiCAP\\SLI -16 512 R0
SYMATTR InstName I1
SYMBOL SLiCAP\\SLC 832 240 R0
SYMATTR InstName C1
SYMATTR Value {Cload}
SYMBOL SLiCAP\\SLR 432 464 R270
WINDOW 0 8 40 VTop 2
WINDOW 3 -8 40 VBottom 2
SYMATTR InstName R1
SYMATTR Value {gain}
SYMBOL SLXMD 272 224 R0
SYMATTR InstName U1
SYMATTR SpiceModel CMOS18ND
SYMATTR Value W={Was} L={Lin} ID={IDas}
SYMBOL SLiCAP\\SLXM 352 96 R180
SYMATTR InstName U2
SYMATTR SpiceModel CMOS18P
SYMATTR Value W={Wcm} L={Lcm} ID={IDasPMOS}
SYMBOL SLiCAP\\SLXM 384 96 M180
SYMATTR InstName U3
SYMATTR SpiceModel CMOS18P
SYMATTR Value W={Wcm} L={Lcm} ID={IDasPMOS}
SYMBOL SLiCAP\\SLXM 576 160 M180
SYMATTR InstName U4
SYMATTR SpiceModel CMOS18P
SYMATTR Value W={Wout} L={Lout} ID={IDoutPMOS}
SYMBOL SLiCAP\\SLXM 576 384 R0
SYMATTR InstName U5
SYMATTR SpiceModel CMOS18N
SYMATTR Value W={Wb} L={Lb} ID={IDout}
SYMBOL SLiCAP\\SLC 496 160 R0
SYMATTR InstName C2
SYMATTR Value {Cps}
SYMBOL SLiCAP\\SLR 528 272 R270
WINDOW 0 8 40 VTop 2
WINDOW 3 -8 40 VBottom 2
SYMATTR InstName R2
SYMATTR Value {Rps}
TEXT 16 40 Left 2 !.lib SLiCAP.lib
TEXT 264 232 Left 2 ;+
TEXT 520 -56 Left 2 ;-
TEXT 456 240 Left 2 ;-
