Version 4
SHEET 1 880 680
WIRE 144 160 48 160
FLAG 176 240 0
FLAG 224 160 out
FLAG 48 240 0
SYMBOL SLiCAP\\SLM_noise 224 144 R0
SYMATTR InstName U1
SYMATTR SpiceModel NM18_noise
SYMBOL SLiCAP\\SLV 48 160 R0
SYMATTR InstName V1
