Version 4
SHEET 1 880 680
WIRE -160 192 -224 192
WIRE -48 192 -80 192
WIRE 0 192 -48 192
WIRE 64 192 0 192
WIRE 80 192 64 192
WIRE 272 192 144 192
WIRE 432 192 416 192
WIRE 464 192 432 192
WIRE -224 256 -224 192
WIRE -160 256 -224 256
WIRE -48 256 -48 192
WIRE -48 256 -80 256
WIRE -224 288 -224 256
WIRE -224 384 -224 368
FLAG 96 272 0
FLAG 272 272 0
FLAG 416 272 0
FLAG 432 192 out
FLAG -224 384 0
FLAG 0 272 0
SYMBOL SLiCAP\\SLM_noise 144 176 R0
SYMATTR InstName U1
SYMATTR SpiceModel PM18_noise
SYMBOL SLH 352 176 R0
SYMATTR InstName H1
SYMATTR Value {gain}
SYMBOL SLiCAP\\SLR -224 288 R0
SYMATTR InstName R3
SYMATTR Value {Rs}
SYMBOL SLiCAP\\SLR -160 256 R270
WINDOW 0 8 40 VTop 2
WINDOW 3 -8 40 VBottom 2
SYMATTR InstName R4
SYMATTR Value {Ree}
SYMBOL SLiCAP\\SLC -160 192 R270
WINDOW 0 16 40 VTop 2
WINDOW 3 -16 40 VBottom 2
SYMATTR InstName C3
SYMATTR Value {Ce}
SYMBOL SLiCAP\\SLR 0 192 R0
SYMATTR InstName R1
SYMATTR Value {gain}
