Version 4
SHEET 1 880 680
WIRE -656 16 -704 16
WIRE -528 16 -576 16
WIRE -704 160 -704 16
WIRE -656 160 -704 160
WIRE -528 160 -528 16
WIRE -528 160 -576 160
WIRE -464 160 -528 160
WIRE -352 160 -384 160
WIRE -304 160 -352 160
WIRE -208 160 -304 160
WIRE -192 160 -208 160
WIRE 16 160 -112 160
WIRE 176 160 160 160
WIRE 208 160 176 160
WIRE -768 224 -880 224
WIRE -704 224 -704 160
WIRE -704 224 -768 224
WIRE -656 224 -704 224
WIRE -528 224 -528 160
WIRE -528 224 -576 224
WIRE -480 224 -528 224
WIRE -464 224 -480 224
WIRE -352 224 -352 160
WIRE -352 224 -384 224
WIRE -304 224 -304 160
WIRE -208 224 -208 160
WIRE -880 256 -880 224
WIRE -768 256 -768 224
WIRE -704 256 -704 224
WIRE -528 256 -528 224
WIRE -528 256 -608 256
WIRE -480 288 -480 224
WIRE -464 288 -480 288
WIRE -384 288 -384 224
WIRE -304 320 -304 304
WIRE -208 320 -208 304
WIRE -208 320 -304 320
WIRE -528 336 -608 336
WIRE -880 352 -880 336
WIRE -768 352 -768 336
WIRE -768 352 -880 352
WIRE -704 352 -704 336
WIRE -704 352 -768 352
WIRE -672 352 -704 352
WIRE -528 352 -528 336
WIRE -528 352 -672 352
WIRE -208 352 -208 320
FLAG -208 352 0
FLAG -160 240 0
FLAG 16 240 0
FLAG 160 240 0
FLAG 176 160 out
FLAG -672 352 0
FLAG -768 224 m
SYMBOL SLiCAP\\SLI -208 304 R180
WINDOW 0 41 24 Left 2
WINDOW 40 41 -16 Left 2
WINDOW 3 41 8 Left 2
WINDOW 123 41 -28 Left 2
WINDOW 39 41 -4 Left 2
SYMATTR InstName In2
SYMATTR SpiceLine2 noise={4*k*T/gain}
SYMBOL SLiCAP\\SLM_noise -112 144 R0
SYMATTR InstName U1
SYMATTR SpiceModel NM18_noise
SYMBOL SLH 96 144 R0
SYMATTR InstName H1
SYMATTR Value {gain}
SYMBOL SLiCAP\\SLR -768 256 R0
SYMATTR InstName R1
SYMATTR Value {Rm}
SYMBOL SLiCAP\\SLR -656 224 R270
WINDOW 0 8 40 VTop 2
WINDOW 3 -8 40 VBottom 2
SYMATTR InstName R2
SYMATTR Value {Rjm}
SYMBOL SLiCAP\\SLR -528 256 R0
SYMATTR InstName R3
SYMATTR Value {Rs}
SYMBOL SLiCAP\\SLR -464 224 R270
WINDOW 0 8 40 VTop 2
WINDOW 3 -8 40 VBottom 2
SYMATTR InstName R6
SYMATTR Value {Ree}
SYMBOL SLiCAP\\SLC -704 256 R0
SYMATTR InstName C1
SYMATTR Value {Cm}
SYMBOL SLiCAP\\SLC -656 160 R270
WINDOW 0 16 40 VTop 2
WINDOW 3 -16 40 VBottom 2
SYMATTR InstName C2
SYMATTR Value {Cjm}
SYMBOL SLiCAP\\SLC -464 160 R270
WINDOW 0 16 40 VTop 2
WINDOW 3 -16 40 VBottom 2
SYMATTR InstName C4
SYMATTR Value {Ce}
SYMBOL SLiCAP\\SLI -384 288 R90
WINDOW 0 -24 40 VBottom 2
WINDOW 40 59 40 VTop 2
WINDOW 3 35 40 VTop 2
WINDOW 123 71 40 VTop 2
WINDOW 39 47 40 VTop 2
SYMATTR InstName In1
SYMATTR SpiceLine2 noise={4*k*T/Ree}
SYMBOL SLiCAP\\SLI -608 256 R0
SYMATTR InstName In3
SYMATTR SpiceLine2 noise={4*k*T/Rs}
SYMBOL SLiCAP\\SLI -880 256 R0
SYMATTR InstName In5
SYMATTR SpiceLine2 noise={4*k*T/Rm}
SYMBOL SLiCAP\\SLI -576 16 R90
WINDOW 0 -24 40 VBottom 2
WINDOW 40 59 40 VTop 2
WINDOW 3 35 40 VTop 2
WINDOW 123 71 40 VTop 2
WINDOW 39 47 40 VTop 2
SYMATTR InstName In4
SYMATTR SpiceLine2 noise={4*k*T/Rjm}
SYMBOL SLiCAP\\SLR -304 224 R0
SYMATTR InstName R4
SYMATTR Value {gain}
