Version 4
SHEET 1 880 680
WIRE -336 192 -400 192
WIRE -224 192 -256 192
WIRE -176 192 -224 192
WIRE -80 192 -176 192
WIRE -64 192 -80 192
WIRE 144 192 16 192
WIRE 304 192 288 192
WIRE 336 192 304 192
WIRE -400 256 -400 192
WIRE -400 256 -528 256
WIRE -336 256 -400 256
WIRE -224 256 -224 192
WIRE -224 256 -256 256
WIRE -80 272 -80 192
WIRE -528 288 -528 256
WIRE -400 288 -400 256
WIRE -400 368 -528 368
WIRE -400 384 -400 368
WIRE -80 400 -80 352
WIRE 0 0 0 0
FLAG -32 272 0
FLAG 144 272 0
FLAG 288 272 0
FLAG 304 192 out
FLAG -400 384 0
FLAG -176 272 0
FLAG -80 400 0
SYMBOL SLiCAP\\SLM_noise 16 176 R0
SYMATTR InstName U1
SYMATTR SpiceModel NM18_noise
SYMBOL SLH 224 176 R0
SYMATTR InstName H1
SYMATTR Value {gain}
SYMBOL SLiCAP\\SLR -400 288 R0
SYMATTR InstName R3
SYMATTR Value {Rs}
SYMBOL SLiCAP\\SLR -336 256 R270
WINDOW 0 8 40 VTop 2
WINDOW 3 -8 40 VBottom 2
SYMATTR InstName R4
SYMATTR Value {Ree}
SYMBOL SLiCAP\\SLC -336 192 R270
WINDOW 0 16 40 VTop 2
WINDOW 3 -16 40 VBottom 2
SYMATTR InstName C3
SYMATTR Value {Ce}
SYMBOL SLiCAP\\SLR -176 192 R0
SYMATTR InstName R1
SYMATTR Value {gain}
SYMBOL SLiCAP\\SLI -528 288 R0
SYMATTR InstName I1
SYMBOL SLiCAP\\SLI -80 352 R180
WINDOW 0 41 24 Left 2
WINDOW 3 41 8 Left 2
WINDOW 123 41 -28 Left 2
WINDOW 39 41 -4 Left 2
WINDOW 40 41 -16 Left 2
SYMATTR InstName In1
SYMATTR SpiceLine2 noise={4*k*T/gain}
