Version 4
SHEET 1 880 680
WIRE -464 160 -528 160
WIRE -352 160 -384 160
WIRE -288 160 -352 160
WIRE -208 160 -288 160
WIRE -192 160 -208 160
WIRE -528 224 -528 160
WIRE -480 224 -528 224
WIRE -464 224 -480 224
WIRE -352 224 -352 160
WIRE -352 224 -384 224
WIRE -528 256 -528 224
WIRE -528 256 -608 256
WIRE -480 288 -480 224
WIRE -464 288 -480 288
WIRE -384 288 -384 224
WIRE -208 288 -208 160
WIRE -528 336 -608 336
WIRE -528 352 -528 336
WIRE -208 384 -208 368
FLAG -208 384 0
FLAG -528 352 0
FLAG -160 240 0
FLAG -112 160 out
FLAG -288 160 e
FLAG 0 0 e
SYMBOL SLiCAP\\SLI -208 368 R180
WINDOW 0 41 24 Left 2
WINDOW 40 41 -16 Left 2
WINDOW 3 41 8 Left 2
WINDOW 123 41 -28 Left 2
WINDOW 39 41 -4 Left 2
SYMATTR InstName In2
SYMATTR SpiceLine2 noise={4*k*T/g_mc}
SYMBOL SLiCAP\\SLR -528 256 R0
SYMATTR InstName R4
SYMATTR Value {Rs}
SYMBOL SLiCAP\\SLR -464 224 R270
WINDOW 0 8 40 VTop 2
WINDOW 3 -8 40 VBottom 2
SYMATTR InstName R5
SYMATTR Value {Ree}
SYMBOL SLiCAP\\SLC -464 160 R270
WINDOW 0 16 40 VTop 2
WINDOW 3 -16 40 VBottom 2
SYMATTR InstName C3
SYMATTR Value {Ce}
SYMBOL SLiCAP\\SLI -384 288 R90
WINDOW 0 -24 40 VBottom 2
WINDOW 40 59 40 VTop 2
WINDOW 3 35 40 VTop 2
WINDOW 123 71 40 VTop 2
WINDOW 39 47 40 VTop 2
SYMATTR InstName In1
SYMATTR SpiceLine2 noise={4*k*T/Ree}
SYMBOL SLiCAP\\SLI -608 256 R0
SYMATTR InstName In3
SYMATTR SpiceLine2 noise={4*k*T/Rs}
SYMBOL SLiCAP\\SLM_noise -112 144 R0
SYMATTR InstName U1
SYMATTR SpiceModel NM18_noise
TEXT -72 424 Left 2 !.lib SLiCAP.lib
