Version 4
SHEET 1 880 680
WIRE -272 192 -336 192
WIRE -160 192 -192 192
WIRE -112 192 -160 192
WIRE -64 192 -112 192
WIRE 144 192 16 192
WIRE 304 192 288 192
WIRE 336 192 304 192
WIRE -336 256 -336 192
WIRE -336 256 -448 256
WIRE -272 256 -336 256
WIRE -160 256 -160 192
WIRE -160 256 -192 256
WIRE -448 288 -448 256
WIRE -336 288 -336 256
WIRE -336 368 -448 368
WIRE -336 384 -336 368
FLAG -32 272 0
FLAG 144 272 0
FLAG 288 272 0
FLAG 304 192 out
FLAG -336 384 0
FLAG -112 272 0
SYMBOL SLiCAP\\SLM_noise 16 176 R0
SYMATTR InstName U1
SYMATTR SpiceModel NM18_noise_onlywhite
SYMBOL SLH 224 176 R0
SYMATTR InstName H1
SYMATTR Value {gain}
SYMBOL SLiCAP\\SLR -336 288 R0
SYMATTR InstName R3
SYMATTR Value {Rs}
SYMBOL SLiCAP\\SLR -272 256 R270
WINDOW 0 8 40 VTop 2
WINDOW 3 -8 40 VBottom 2
SYMATTR InstName R4
SYMATTR Value {Ree}
SYMBOL SLiCAP\\SLC -272 192 R270
WINDOW 0 16 40 VTop 2
WINDOW 3 -16 40 VBottom 2
SYMATTR InstName C3
SYMATTR Value {Ce}
SYMBOL SLiCAP\\SLR -112 192 R0
SYMATTR InstName R1
SYMATTR Value {gain}
SYMBOL SLiCAP\\SLI -448 288 R0
SYMATTR InstName I1
