Version 4
SHEET 1 880 680
WIRE -320 192 -384 192
WIRE -208 192 -240 192
WIRE -160 192 -208 192
WIRE -48 192 -160 192
WIRE 160 192 32 192
WIRE 320 192 304 192
WIRE 352 192 320 192
WIRE -384 256 -384 192
WIRE -384 256 -496 256
WIRE -320 256 -384 256
WIRE -208 256 -208 192
WIRE -208 256 -240 256
WIRE -496 288 -496 256
WIRE -384 288 -384 256
WIRE -384 368 -496 368
WIRE -384 384 -384 368
FLAG -16 272 0
FLAG 160 272 0
FLAG 304 272 0
FLAG 320 192 out
FLAG -384 384 0
FLAG -160 272 0
SYMBOL SLiCAP\\SLM_noise 32 176 R0
SYMATTR InstName U1
SYMATTR SpiceModel NM18_noise_onlyblue
SYMBOL SLH 240 176 R0
SYMATTR InstName H1
SYMATTR Value {gain}
SYMBOL SLiCAP\\SLR -384 288 R0
SYMATTR InstName R3
SYMATTR Value {Rs}
SYMBOL SLiCAP\\SLR -320 256 R270
WINDOW 0 8 40 VTop 2
WINDOW 3 -8 40 VBottom 2
SYMATTR InstName R4
SYMATTR Value {Ree}
SYMBOL SLiCAP\\SLC -320 192 R270
WINDOW 0 16 40 VTop 2
WINDOW 3 -16 40 VBottom 2
SYMATTR InstName C3
SYMATTR Value {Ce}
SYMBOL SLiCAP\\SLR -160 192 R0
SYMATTR InstName R1
SYMATTR Value {gain}
SYMBOL SLiCAP\\SLI -496 288 R0
SYMATTR InstName I1
