Version 4
SHEET 1 880 680
WIRE -240 192 -304 192
WIRE -32 192 -160 192
WIRE 48 192 -32 192
WIRE 64 192 48 192
WIRE 272 192 144 192
WIRE 432 192 416 192
WIRE 464 192 432 192
WIRE -304 256 -304 192
WIRE -304 256 -432 256
WIRE -240 256 -304 256
WIRE -160 256 -160 192
WIRE 48 272 48 192
WIRE -432 288 -432 256
WIRE -304 288 -304 256
WIRE -304 368 -432 368
WIRE -304 384 -304 368
WIRE 48 448 48 352
FLAG 96 272 0
FLAG 272 272 0
FLAG 416 272 0
FLAG 432 192 out
FLAG -304 384 0
FLAG 48 448 0
FLAG -32 272 0
SYMBOL SLiCAP\\SLM_noise 144 176 R0
SYMATTR InstName U1
SYMATTR SpiceModel NM18_noise
SYMBOL SLH 352 176 R0
SYMATTR InstName H1
SYMATTR Value {gain}
SYMBOL SLiCAP\\SLR -304 288 R0
SYMATTR InstName R3
SYMATTR Value {Rs}
SYMBOL SLiCAP\\SLR -240 256 R270
WINDOW 0 8 40 VTop 2
WINDOW 3 -8 40 VBottom 2
SYMATTR InstName R4
SYMATTR Value {Ree}
SYMBOL SLiCAP\\SLC -240 192 R270
WINDOW 0 16 40 VTop 2
WINDOW 3 -16 40 VBottom 2
SYMATTR InstName C3
SYMATTR Value {Ce}
SYMBOL SLiCAP\\SLI 48 352 R180
WINDOW 0 41 24 Left 2
WINDOW 3 41 8 Left 2
WINDOW 123 41 -28 Left 2
WINDOW 39 41 -4 Left 2
WINDOW 40 41 -16 Left 2
SYMATTR InstName In2
SYMATTR SpiceLine2 noise={4*k*T/gain}
SYMBOL SLiCAP\\SLR -32 192 R0
SYMATTR InstName R1
SYMATTR Value {gain}
SYMBOL SLiCAP\\SLI -432 288 R0
SYMATTR InstName I1
