Version 4
SHEET 1 880 680
WIRE 16 80 -80 80
FLAG 48 160 0
FLAG 96 80 out
FLAG -80 160 0
SYMBOL SLiCAP\\SLM_noise 96 64 R0
SYMATTR InstName U1
SYMATTR SpiceModel PM18_noise
SYMBOL SLiCAP\\SLR -80 80 R0
SYMATTR InstName R1
SYMATTR Value {Rtest}
