Version 4
SHEET 1 940 680
WIRE 304 -32 288 -32
WIRE 848 -32 448 -32
WIRE 736 48 448 48
WIRE 528 112 496 112
WIRE 496 128 496 112
WIRE 496 128 384 128
WIRE 528 128 528 112
WIRE 848 128 848 -32
WIRE 848 128 576 128
WIRE 880 128 848 128
WIRE 912 128 880 128
WIRE 384 144 384 128
WIRE 880 160 880 128
WIRE -32 192 -96 192
WIRE 80 192 48 192
WIRE 304 192 304 48
WIRE 304 192 80 192
WIRE 336 192 304 192
WIRE 400 192 384 192
WIRE 400 224 400 192
WIRE 400 224 384 224
WIRE -96 256 -96 192
WIRE -96 256 -192 256
WIRE -32 256 -96 256
WIRE 80 256 80 192
WIRE 80 256 48 256
WIRE 384 256 384 224
WIRE 528 256 528 176
WIRE 528 256 384 256
WIRE 736 256 736 48
WIRE 736 256 528 256
WIRE 384 272 384 256
WIRE -192 288 -192 256
WIRE -96 288 -96 256
WIRE -192 384 -192 368
WIRE -96 384 -96 368
WIRE -96 384 -192 384
WIRE -96 400 -96 384
FLAG 384 272 0
FLAG 880 128 out
FLAG -96 400 0
FLAG 288 -32 0
FLAG 880 240 0
SYMBOL SLiCAP\\SLR -96 288 R0
SYMATTR InstName R3
SYMATTR Value {Rs}
SYMBOL SLiCAP\\SLR -32 256 R270
WINDOW 0 8 40 VTop 2
WINDOW 3 -8 40 VBottom 2
SYMATTR InstName R4
SYMATTR Value {Ree}
SYMBOL SLiCAP\\SLC -32 192 R270
WINDOW 0 16 40 VTop 2
WINDOW 3 -16 40 VBottom 2
SYMATTR InstName C3
SYMATTR Value {Ce}
SYMBOL SLiCAP\\SLG 368 -48 M0
SYMATTR InstName G1
SYMATTR Value {1/gain}
SYMBOL SLiCAP\\SLI -192 288 R0
SYMATTR InstName I1
SYMBOL SLiCAP\\SLC 880 160 R0
SYMATTR InstName C1
SYMATTR Value {Cload}
SYMBOL SLiCAP\\SLXM 336 192 R0
SYMATTR InstName U1
SYMATTR SpiceModel CMOS18N
SYMBOL SLiCAP\\SLXM 528 176 M270
SYMATTR InstName U2
SYMATTR SpiceModel CMOS18N
TEXT 24 120 Left 2 !.lib SLiCAP.lib
TEXT 600 104 Left 2 ;W?
TEXT 488 304 Left 2 ;loop reference?
