Version 4
SHEET 1 880 772
WIRE -16 64 -48 64
WIRE 80 64 64 64
WIRE 144 64 80 64
WIRE -656 160 -704 160
WIRE -528 160 -576 160
WIRE -464 160 -528 160
WIRE -352 160 -384 160
WIRE -192 160 -352 160
WIRE -48 160 -48 64
WIRE -48 160 -192 160
WIRE 144 160 144 64
WIRE 144 160 96 160
WIRE 240 160 144 160
WIRE 240 176 240 160
WIRE -768 224 -880 224
WIRE -704 224 -704 160
WIRE -704 224 -768 224
WIRE -656 224 -704 224
WIRE -528 224 -528 160
WIRE -528 224 -576 224
WIRE -464 224 -528 224
WIRE -352 224 -352 160
WIRE -352 224 -384 224
WIRE 176 240 96 240
WIRE 240 240 176 240
WIRE -880 256 -880 224
WIRE -768 256 -768 224
WIRE -704 256 -704 224
WIRE -528 256 -528 224
WIRE -880 352 -880 336
WIRE -768 352 -768 336
WIRE -768 352 -880 352
WIRE -704 352 -704 336
WIRE -704 352 -768 352
WIRE -528 352 -528 336
WIRE -528 352 -704 352
WIRE -192 352 -192 160
WIRE -128 352 -192 352
WIRE -48 352 -48 240
WIRE -48 352 -128 352
WIRE -128 384 -128 352
WIRE -704 496 -704 352
WIRE -128 496 -128 464
WIRE -128 496 -704 496
WIRE -704 512 -704 496
FLAG -704 512 0
FLAG -768 224 m
FLAG 176 240 0
FLAG 80 0 0
SYMBOL SLiCAP\\SLR -768 256 R0
SYMATTR InstName R1
SYMATTR Value {Rm}
SYMBOL SLiCAP\\SLR -656 224 R270
WINDOW 0 8 40 VTop 2
WINDOW 3 -8 40 VBottom 2
SYMATTR InstName R2
SYMATTR Value {Rjm}
SYMBOL SLiCAP\\SLR -528 256 R0
SYMATTR InstName R3
SYMATTR Value {Rs}
SYMBOL SLiCAP\\SLR -464 224 R270
WINDOW 0 8 40 VTop 2
WINDOW 3 -8 40 VBottom 2
SYMATTR InstName R6
SYMATTR Value {Ree}
SYMBOL SLiCAP\\SLC -704 256 R0
SYMATTR InstName C1
SYMATTR Value {Cm}
SYMBOL SLiCAP\\SLC -656 160 R270
WINDOW 0 16 40 VTop 2
WINDOW 3 -16 40 VBottom 2
SYMATTR InstName C2
SYMATTR Value {Cjm}
SYMBOL SLiCAP\\SLC -464 160 R270
WINDOW 0 16 40 VTop 2
WINDOW 3 -16 40 VBottom 2
SYMATTR InstName C4
SYMATTR Value {Ce}
SYMBOL f -880 256 R0
SYMATTR InstName F1
SYMATTR Value {Im}
SYMBOL SLiCAP\\SLN 32 144 R0
SYMATTR InstName N1
SYMBOL SLiCAP\\SLR -16 64 R270
WINDOW 0 8 40 VTop 2
WINDOW 3 -8 40 VBottom 2
SYMATTR InstName gm
SYMATTR Value {g}
SYMBOL voltage -128 368 R0
SYMATTR InstName V1
SYMATTR Value {Vclamp}
SYMBOL cap 224 176 R0
SYMATTR InstName C5
SYMATTR Value {C_ADC}
SYMBOL cap 64 0 R0
SYMATTR InstName C3
SYMATTR Value {C_gm}
TEXT -912 120 Left 3 ;Neuron
TEXT -488 104 Left 3 ;Electrode
TEXT -64 -16 Left 3 ;Feedback
TEXT 344 192 Left 4 ;ADC
TEXT -128 512 Left 3 ;Voltage clamp
TEXT -936 -32 Left 6 ;TIA WITH ACTIVE FEEDBACK
TEXT -8 272 Left 3 ;Amplifier
RECTANGLE Normal -560 416 -944 80
RECTANGLE Normal -320 272 -512 80
RECTANGLE Normal 480 304 208 112
RECTANGLE Normal 176 96 -80 -48
RECTANGLE Normal -16 528 -224 336
