Version 4
SHEET 1 1012 680
WIRE 576 128 560 128
WIRE 592 128 576 128
WIRE 512 160 480 160
WIRE 576 160 576 128
WIRE 576 160 560 160
WIRE 368 176 368 144
WIRE 480 176 480 160
WIRE 480 176 448 176
WIRE 640 208 560 208
WIRE 752 208 640 208
WIRE 784 208 752 208
WIRE 320 224 304 224
WIRE 512 224 496 224
WIRE 752 240 752 208
WIRE 416 256 400 256
WIRE 144 384 80 384
WIRE 256 384 224 384
WIRE 304 384 304 224
WIRE 304 384 256 384
WIRE 752 432 752 320
WIRE 80 448 80 384
WIRE 80 448 -16 448
WIRE 144 448 80 448
WIRE 256 448 256 384
WIRE 256 448 224 448
WIRE 304 448 304 384
WIRE 432 448 304 448
WIRE 640 448 640 208
WIRE 640 448 512 448
WIRE -16 480 -16 448
WIRE 80 480 80 448
WIRE -16 576 -16 560
WIRE 32 576 -16 576
WIRE 80 576 80 560
WIRE 80 576 32 576
FLAG 752 208 out
FLAG 752 432 0
FLAG 592 128 0
FLAG 32 576 0
FLAG 512 224 0
FLAG 368 144 0
SYMBOL SLiCAP\\SLR 80 480 R0
SYMATTR InstName R3
SYMATTR Value {Rs}
SYMBOL SLiCAP\\SLR 144 448 R270
WINDOW 0 8 40 VTop 2
WINDOW 3 -8 40 VBottom 2
SYMATTR InstName R4
SYMATTR Value {Ree}
SYMBOL SLiCAP\\SLC 144 384 R270
WINDOW 0 16 40 VTop 2
WINDOW 3 -16 40 VBottom 2
SYMATTR InstName C3
SYMATTR Value {Ce}
SYMBOL SLiCAP\\SLI -16 480 R0
SYMATTR InstName I1
SYMBOL SLiCAP\\SLC 752 240 R0
SYMATTR InstName C1
SYMATTR Value {Cload}
SYMBOL SLiCAP\\SLR 432 448 R270
WINDOW 0 8 40 VTop 2
WINDOW 3 -8 40 VBottom 2
SYMATTR InstName R1
SYMATTR Value {gain}
SYMBOL SLXMD 320 224 R0
SYMATTR InstName U1
SYMATTR SpiceModel CMOS18ND
SYMATTR Value W={Was} L={Lin} ID={IDas}
SYMBOL SLiCAP\\SLXM 512 160 M180
SYMATTR InstName U4
SYMATTR SpiceModel CMOS18P
SYMATTR Value W={Wout} L={Lout} ID={IDoutPMOS}
TEXT -24 176 Left 2 !.lib SLiCAP.lib
TEXT -120 144 Left 2 ;loopgain reference: Gm_M1_XU1 (cascoded version, no Cdg)
TEXT 312 232 Left 2 ;+
TEXT 520 -56 Left 2 ;-
TEXT 312 368 Left 2 ;-
TEXT 504 240 Left 2 ;-
